Circuit: * C:\Users\alber\Downloads\Wearable-EEG-Sensor\circuit_simulation_files\Draft1.asc

WARNING: Less than two connections to node NC_01.  This node is used by R:U4:1.
WARNING: Less than two connections to node NC_02.  This node is used by R:U1:1.
WARNING: Less than two connections to node VIN2+.  This node is used by VIN1.
Direct Newton iteration for .op point succeeded.
Ignoring empty pin current: Ix(_u1:100)
Ignoring empty pin current: Ix(_u1:101)
Ignoring empty pin current: Ix(_u1:102)
Ignoring empty pin current: Ix(_u1:103)
Ignoring empty pin current: Ix(_u1:104)
Ignoring empty pin current: Ix(_u2:100)
Ignoring empty pin current: Ix(_u2:101)
Ignoring empty pin current: Ix(_u2:102)
Ignoring empty pin current: Ix(_u2:103)
Ignoring empty pin current: Ix(_u2:104)
Ignoring empty pin current: Ix(u4:vin-)
Ignoring empty pin current: Ix(u4:vin+)
Ignoring empty pin current: Ix(u1:vin-)
Ignoring empty pin current: Ix(u1:vin+)
Ignoring empty pin current: Ix(_u1:100)
Ignoring empty pin current: Ix(_u1:101)
Ignoring empty pin current: Ix(_u1:102)
Ignoring empty pin current: Ix(_u1:103)
Ignoring empty pin current: Ix(_u1:104)
Ignoring empty pin current: Ix(_u2:100)
Ignoring empty pin current: Ix(_u2:101)
Ignoring empty pin current: Ix(_u2:102)
Ignoring empty pin current: Ix(_u2:103)
Ignoring empty pin current: Ix(_u2:104)
Ignoring empty pin current: Ix(u4:vin-)
Ignoring empty pin current: Ix(u4:vin+)
Ignoring empty pin current: Ix(u1:vin-)
Ignoring empty pin current: Ix(u1:vin+)

Date: Sun Feb 11 21:24:58 2024
Total elapsed time: 0.777 seconds.

tnom = 27
temp = 27
method = modified trap
totiter = 8842
traniter = 8805
tranpoints = 4173
accept = 2809
rejected = 1364
matrix size = 539
fillins = 615
solver = Normal
Thread vector: 83.2/40.8[11] 28.8/14.6[11] 9.3/5.5[5] 3.4/5.5[1]  2592/500
Matrix Compiler1: 50.97 KB object code size  26.3/11.0/[8.6]
Matrix Compiler2: off  [8.2]/27.1/16.5

