Circuit: * C:\Users\alber\Downloads\Wearable-EEG-Sensor\circuit_simulation_files\Draft1.asc

WARNING: Less than two connections to node NC_01.  This node is used by R:U4:1.
WARNING: Less than two connections to node NC_02.  This node is used by R:U1:1.
WARNING: Less than two connections to node VIN2+.  This node is used by VIN1.
Direct Newton iteration for .op point succeeded.
Ignoring empty pin current: Ix(_u1:100)
Ignoring empty pin current: Ix(_u1:101)
Ignoring empty pin current: Ix(_u1:102)
Ignoring empty pin current: Ix(_u1:103)
Ignoring empty pin current: Ix(_u1:104)
Ignoring empty pin current: Ix(_u2:100)
Ignoring empty pin current: Ix(_u2:101)
Ignoring empty pin current: Ix(_u2:102)
Ignoring empty pin current: Ix(_u2:103)
Ignoring empty pin current: Ix(_u2:104)
Ignoring empty pin current: Ix(u4:vin-)
Ignoring empty pin current: Ix(u4:vin+)
Ignoring empty pin current: Ix(u1:vin-)
Ignoring empty pin current: Ix(u1:vin+)
Ignoring empty pin current: Ix(_u1:100)
Ignoring empty pin current: Ix(_u1:101)
Ignoring empty pin current: Ix(_u1:102)
Ignoring empty pin current: Ix(_u1:103)
Ignoring empty pin current: Ix(_u1:104)
Ignoring empty pin current: Ix(_u2:100)
Ignoring empty pin current: Ix(_u2:101)
Ignoring empty pin current: Ix(_u2:102)
Ignoring empty pin current: Ix(_u2:103)
Ignoring empty pin current: Ix(_u2:104)
Ignoring empty pin current: Ix(u4:vin-)
Ignoring empty pin current: Ix(u4:vin+)
Ignoring empty pin current: Ix(u1:vin-)
Ignoring empty pin current: Ix(u1:vin+)

Date: Mon Mar 11 12:57:57 2024
Total elapsed time: 0.481 seconds.

tnom = 27
temp = 27
method = trap
totiter = 37
traniter = 0
tranpoints = 0
accept = 0
rejected = 0
matrix size = 539
fillins = 598
solver = Normal
Matrix Compiler1:    2902 opcodes
Matrix Compiler2:    4076 opcodes
