Circuit: * C:\Users\alber\Downloads\Wearable-EEG-Sensor\circuit_simulation_files\Draft1.asc

WARNING: Less than two connections to node NC_01.  This node is used by R:U4:1.
WARNING: Less than two connections to node NC_02.  This node is used by R:U1:1.
WARNING: Less than two connections to node VIN2+.  This node is used by VIN1.
Direct Newton iteration for .op point succeeded.
Ignoring empty pin current: Ix(_u1:100)
Ignoring empty pin current: Ix(_u1:101)
Ignoring empty pin current: Ix(_u1:102)
Ignoring empty pin current: Ix(_u1:103)
Ignoring empty pin current: Ix(_u1:104)
Ignoring empty pin current: Ix(_u2:100)
Ignoring empty pin current: Ix(_u2:101)
Ignoring empty pin current: Ix(_u2:102)
Ignoring empty pin current: Ix(_u2:103)
Ignoring empty pin current: Ix(_u2:104)
Ignoring empty pin current: Ix(u4:vin-)
Ignoring empty pin current: Ix(u4:vin+)
Ignoring empty pin current: Ix(u1:vin-)
Ignoring empty pin current: Ix(u1:vin+)
Ignoring empty pin current: Ix(_u1:100)
Ignoring empty pin current: Ix(_u1:101)
Ignoring empty pin current: Ix(_u1:102)
Ignoring empty pin current: Ix(_u1:103)
Ignoring empty pin current: Ix(_u1:104)
Ignoring empty pin current: Ix(_u2:100)
Ignoring empty pin current: Ix(_u2:101)
Ignoring empty pin current: Ix(_u2:102)
Ignoring empty pin current: Ix(_u2:103)
Ignoring empty pin current: Ix(_u2:104)
Ignoring empty pin current: Ix(u4:vin-)
Ignoring empty pin current: Ix(u4:vin+)
Ignoring empty pin current: Ix(u1:vin-)
Ignoring empty pin current: Ix(u1:vin+)

Date: Thu Mar 07 13:43:50 2024
Total elapsed time: 0.890 seconds.

tnom = 27
temp = 27
method = modified trap
totiter = 8837
traniter = 8800
tranpoints = 4167
accept = 2805
rejected = 1362
matrix size = 539
fillins = 615
solver = Normal
Thread vector: 60.1/31.8[9] 24.7/14.3[9] 9.2/6.5[7] 2.3/3.2[1]  2592/500
Matrix Compiler1: 50.97 KB object code size  24.0/10.0/[5.9]
Matrix Compiler2: 51.33 KB object code size  7.0/11.1/[5.1]

