Circuit: * C:\Users\alber\Downloads\Wearable-EEG-Sensor\circuit_simulation_files\Draft1.asc

WARNING: Less than two connections to node NC_01.  This node is used by R:U4:1.
WARNING: Less than two connections to node NC_02.  This node is used by R:U1:1.
WARNING: Less than two connections to node VIN2+.  This node is used by VIN1.
Direct Newton iteration for .op point succeeded.
Ignoring empty pin current: Ix(_u1:100)
Ignoring empty pin current: Ix(_u1:101)
Ignoring empty pin current: Ix(_u1:102)
Ignoring empty pin current: Ix(_u1:103)
Ignoring empty pin current: Ix(_u1:104)
Ignoring empty pin current: Ix(_u2:100)
Ignoring empty pin current: Ix(_u2:101)
Ignoring empty pin current: Ix(_u2:102)
Ignoring empty pin current: Ix(_u2:103)
Ignoring empty pin current: Ix(_u2:104)
Ignoring empty pin current: Ix(u4:vin-)
Ignoring empty pin current: Ix(u4:vin+)
Ignoring empty pin current: Ix(u1:vin-)
Ignoring empty pin current: Ix(u1:vin+)
Ignoring empty pin current: Ix(_u1:100)
Ignoring empty pin current: Ix(_u1:101)
Ignoring empty pin current: Ix(_u1:102)
Ignoring empty pin current: Ix(_u1:103)
Ignoring empty pin current: Ix(_u1:104)
Ignoring empty pin current: Ix(_u2:100)
Ignoring empty pin current: Ix(_u2:101)
Ignoring empty pin current: Ix(_u2:102)
Ignoring empty pin current: Ix(_u2:103)
Ignoring empty pin current: Ix(_u2:104)
Ignoring empty pin current: Ix(u4:vin-)
Ignoring empty pin current: Ix(u4:vin+)
Ignoring empty pin current: Ix(u1:vin-)
Ignoring empty pin current: Ix(u1:vin+)

Date: Thu Feb 15 14:28:47 2024
Total elapsed time: 0.986 seconds.

tnom = 27
temp = 27
method = modified trap
totiter = 8871
traniter = 8834
tranpoints = 4182
accept = 2810
rejected = 1372
matrix size = 539
fillins = 615
solver = Normal
Thread vector: 63.9/33.8[11] 38.9/17.8[11] 14.3/7.7[9] 2.2/4.6[1]  2592/500
Matrix Compiler1:    2941 opcodes  29.7/[16.9]/19.9
Matrix Compiler2: 51.33 KB object code size  22.0/32.0/[4.6]

