Circuit: * C:\Users\alber\Downloads\Wearable-EEG-Sensor\LTSpice Stuff\Draft1.asc

WARNING: Specified period is not longer than the sum of Trise, Tfall, and Ton for v2.  Increasing period to 2e-006
Direct Newton iteration for .op point succeeded.

Date: Tue Nov 14 15:31:10 2023
Total elapsed time: 0.114 seconds.

tnom = 27
temp = 27
method = modified trap
totiter = 20979
traniter = 20973
tranpoints = 9868
accept = 8309
rejected = 1559
matrix size = 12
fillins = 0
solver = Normal
Matrix Compiler1: 284 bytes object code size  0.1/0.1/[0.1]
Matrix Compiler2: 742 bytes object code size  0.1/0.1/[0.1]

