Circuit: * C:\Users\alber\Downloads\Wearable-EEG-Sensor\LTSpice Stuff\Draft2.asc

WARNING: Less than two connections to node NC_02.  This node is used by R:U1:5.
Direct Newton iteration for .op point succeeded.
Ignoring empty pin current: Ix(_u1:100)
Ignoring empty pin current: Ix(_u1:101)
Ignoring empty pin current: Ix(_u1:102)
Ignoring empty pin current: Ix(_u1:103)
Ignoring empty pin current: Ix(_u1:104)
Ignoring empty pin current: Ix(_u2:100)
Ignoring empty pin current: Ix(_u2:101)
Ignoring empty pin current: Ix(_u2:102)
Ignoring empty pin current: Ix(_u2:103)
Ignoring empty pin current: Ix(_u2:104)
Ignoring empty pin current: Ix(u1:vin-)
Ignoring empty pin current: Ix(u1:vin+)
Ignoring empty pin current: Ix(_u1:100)
Ignoring empty pin current: Ix(_u1:101)
Ignoring empty pin current: Ix(_u1:102)
Ignoring empty pin current: Ix(_u1:103)
Ignoring empty pin current: Ix(_u1:104)
Ignoring empty pin current: Ix(_u2:100)
Ignoring empty pin current: Ix(_u2:101)
Ignoring empty pin current: Ix(_u2:102)
Ignoring empty pin current: Ix(_u2:103)
Ignoring empty pin current: Ix(_u2:104)
Ignoring empty pin current: Ix(u1:vin-)
Ignoring empty pin current: Ix(u1:vin+)

Date: Tue Nov 14 15:31:13 2023
Total elapsed time: 0.330 seconds.

tnom = 27
temp = 27
method = modified trap
totiter = 24532
traniter = 24496
tranpoints = 12006
accept = 11657
rejected = 349
matrix size = 240
fillins = 232
solver = Normal
Thread vector: 6.5/3.6[5] 2.6/1.6[5] 0.8/0.9[1] 0.5/0.8[1]  2592/500
Matrix Compiler1: 21.00 KB object code size  5.2/1.7/[1.4]
Matrix Compiler2: 21.25 KB object code size  1.3/1.7/[1.0]

