Circuit: * C:\Users\legen\OneDrive\Documents\LTspiceXVII\Draft1.asc

WARNING: Less than two connections to node NC_01.  This node is used by R:U4:1.
WARNING: Less than two connections to node NC_02.  This node is used by R:U1:1.
WARNING: Less than two connections to node VIN3+.  This node is used by VIN2.
Direct Newton iteration for .op point succeeded.
Ignoring empty pin current: Ix(_u1:100)
Ignoring empty pin current: Ix(_u1:101)
Ignoring empty pin current: Ix(_u1:102)
Ignoring empty pin current: Ix(_u1:103)
Ignoring empty pin current: Ix(_u1:104)
Ignoring empty pin current: Ix(_u2:100)
Ignoring empty pin current: Ix(_u2:101)
Ignoring empty pin current: Ix(_u2:102)
Ignoring empty pin current: Ix(_u2:103)
Ignoring empty pin current: Ix(_u2:104)
Ignoring empty pin current: Ix(u4:vin-)
Ignoring empty pin current: Ix(u4:vin+)
Ignoring empty pin current: Ix(u1:vin-)
Ignoring empty pin current: Ix(u1:vin+)
Ignoring empty pin current: Ix(_u1:100)
Ignoring empty pin current: Ix(_u1:101)
Ignoring empty pin current: Ix(_u1:102)
Ignoring empty pin current: Ix(_u1:103)
Ignoring empty pin current: Ix(_u1:104)
Ignoring empty pin current: Ix(_u2:100)
Ignoring empty pin current: Ix(_u2:101)
Ignoring empty pin current: Ix(_u2:102)
Ignoring empty pin current: Ix(_u2:103)
Ignoring empty pin current: Ix(_u2:104)
Ignoring empty pin current: Ix(u4:vin-)
Ignoring empty pin current: Ix(u4:vin+)
Ignoring empty pin current: Ix(u1:vin-)
Ignoring empty pin current: Ix(u1:vin+)

Date: Wed Nov 15 12:58:03 2023
Total elapsed time: 1.767 seconds.

tnom = 27
temp = 27
method = modified trap
totiter = 20119
traniter = 20082
tranpoints = 10042
accept = 10037
rejected = 5
matrix size = 537
fillins = 611
solver = Normal
Thread vector: 86.5/25.6[11] 25.2/10.0[11] 14.5/7.8[11] 1.7/3.7[1]  2592/500
Matrix Compiler1: 50.72 KB object code size  28.0/14.0/[6.6]
Matrix Compiler2: 51.10 KB object code size  12.0/13.1/[2.9]

